FXR_74
 OpenBabel12152017353D

 57 61  0  0  0  0  0  0  0  0999 V2000
    1.6778    0.6262   -2.8817 O   0  5  0  0  0  0  0  0  0  0  0  0
    2.8235    0.3919   -3.3794 C   0  0  0  0  0  0  0  0  0  0  0  0
    3.4520    1.1464   -4.1886 O   0  0  0  0  0  0  0  0  0  0  0  0
    3.5024   -0.9032   -2.9789 C   0  0  0  0  0  0  0  0  0  0  0  0
    2.8842   -1.8063   -2.0985 C   0  0  0  0  0  0  0  0  0  0  0  0
    3.5083   -3.0044   -1.7407 C   0  0  0  0  0  0  0  0  0  0  0  0
    4.7689   -3.3228   -2.2582 C   0  0  0  0  0  0  0  0  0  0  0  0
    5.5050   -4.5374   -1.7900 C   0  0  0  0  0  0  0  0  0  0  0  0
    4.9159   -5.8276   -2.1241 N   0  0  0  0  0  0  0  0  0  0  0  0
    4.6137   -6.6510   -1.0247 C   0  0  0  0  0  0  0  0  0  0  0  0
    4.0114   -6.3174   -0.0143 O   0  0  0  0  0  0  0  0  0  0  0  0
    5.3682   -7.9855   -1.2224 C   0  0  0  0  0  0  0  0  0  0  0  0
    6.5583   -7.9250   -0.2400 C   0  0  0  0  0  0  0  0  0  0  0  0
    7.2393   -9.2698   -0.0300 C   0  0  0  0  0  0  0  0  0  0  0  0
    6.2491  -10.3307    0.2623 N   0  0  0  0  0  0  0  0  0  0  0  0
    5.2041  -10.4711   -0.7802 C   0  0  0  0  0  0  0  0  0  0  0  0
    4.4380   -9.1689   -0.9513 C   0  0  0  0  0  0  0  0  0  0  0  0
    5.7196  -10.5031    1.8788 S   0  0  0  0  0  0  0  0  0  0  0  0
    5.7185   -9.1906    2.4893 O   0  0  0  0  0  0  0  0  0  0  0  0
    4.5233  -11.3166    1.9124 O   0  0  0  0  0  0  0  0  0  0  0  0
    7.0026  -11.4563    2.6467 C   0  0  0  0  0  0  0  0  0  0  0  0
    7.6980  -10.8644    3.7193 C   0  0  0  0  0  0  0  0  0  0  0  0
    8.5898  -11.6173    4.4818 C   0  0  0  0  0  0  0  0  0  0  0  0
    8.7947  -12.9605    4.1829 C   0  0  0  0  0  0  0  0  0  0  0  0
    8.1292  -13.5453    3.1042 C   0  0  0  0  0  0  0  0  0  0  0  0
    7.2339  -12.8002    2.3270 C   0  0  0  0  0  0  0  0  0  0  0  0
    6.4283  -13.7196    0.8740 Br  0  0  0  0  0  0  0  0  0  0  0  0
    5.8308   -7.8697   -2.6573 C   0  0  0  0  0  0  0  0  0  0  0  0
    6.5397   -8.7572   -3.4544 C   0  0  0  0  0  0  0  0  0  0  0  0
    6.8462   -8.3800   -4.7621 C   0  0  0  0  0  0  0  0  0  0  0  0
    7.8261   -9.5730   -5.8561 Br  0  0  0  0  0  0  0  0  0  0  0  0
    6.4522   -7.1329   -5.2655 C   0  0  0  0  0  0  0  0  0  0  0  0
    5.7953   -6.2158   -4.4385 C   0  0  0  0  0  0  0  0  0  0  0  0
    5.5139   -6.5990   -3.1380 C   0  0  0  0  0  0  0  0  0  0  0  0
    5.3993   -2.4203   -3.1246 C   0  0  0  0  0  0  0  0  0  0  0  0
    4.7717   -1.2272   -3.4801 C   0  0  0  0  0  0  0  0  0  0  0  0
    1.9089   -1.5569   -1.6829 H   0  0  0  0  0  0  0  0  0  0  0  0
    3.0164   -3.6695   -1.0337 H   0  0  0  0  0  0  0  0  0  0  0  0
    5.6183   -4.4624   -0.6994 H   0  0  0  0  0  0  0  0  0  0  0  0
    6.5373   -4.5275   -2.1670 H   0  0  0  0  0  0  0  0  0  0  0  0
    6.2020   -7.5548    0.7295 H   0  0  0  0  0  0  0  0  0  0  0  0
    7.2997   -7.1819   -0.5655 H   0  0  0  0  0  0  0  0  0  0  0  0
    7.9796   -9.1966    0.7760 H   0  0  0  0  0  0  0  0  0  0  0  0
    7.8069   -9.5499   -0.9237 H   0  0  0  0  0  0  0  0  0  0  0  0
    4.5230  -11.2886   -0.5443 H   0  0  0  0  0  0  0  0  0  0  0  0
    5.6860  -10.7804   -1.7114 H   0  0  0  0  0  0  0  0  0  0  0  0
    3.8591   -8.9838   -0.0365 H   0  0  0  0  0  0  0  0  0  0  0  0
    3.7017   -9.2805   -1.7573 H   0  0  0  0  0  0  0  0  0  0  0  0
    7.5194   -9.8262    3.9904 H   0  0  0  0  0  0  0  0  0  0  0  0
    9.0999  -11.1600    5.3257 H   0  0  0  0  0  0  0  0  0  0  0  0
    9.4674  -13.5570    4.7939 H   0  0  0  0  0  0  0  0  0  0  0  0
    8.3024  -14.5973    2.8886 H   0  0  0  0  0  0  0  0  0  0  0  0
    6.8755   -9.7170   -3.0821 H   0  0  0  0  0  0  0  0  0  0  0  0
    6.6622   -6.8678   -6.2992 H   0  0  0  0  0  0  0  0  0  0  0  0
    5.4803   -5.2502   -4.8223 H   0  0  0  0  0  0  0  0  0  0  0  0
    6.3948   -2.6201   -3.5107 H   0  0  0  0  0  0  0  0  0  0  0  0
    5.2731   -0.5263   -4.1455 H   0  0  0  0  0  0  0  0  0  0  0  0
  1  2  1  0  0  0  0
  2  3  2  0  0  0  0
  2  4  1  0  0  0  0
  4  5  1  0  0  0  0
  4 36  2  0  0  0  0
  5  6  2  0  0  0  0
  5 37  1  0  0  0  0
  6  7  1  0  0  0  0
  6 38  1  0  0  0  0
  7  8  1  0  0  0  0
  7 35  2  0  0  0  0
  8  9  1  0  0  0  0
  8 39  1  0  0  0  0
  8 40  1  0  0  0  0
  9 10  1  0  0  0  0
  9 34  1  0  0  0  0
 10 11  2  0  0  0  0
 10 12  1  0  0  0  0
 12 13  1  0  0  0  0
 12 17  1  0  0  0  0
 12 28  1  0  0  0  0
 13 14  1  0  0  0  0
 13 41  1  0  0  0  0
 13 42  1  0  0  0  0
 14 15  1  0  0  0  0
 14 43  1  0  0  0  0
 14 44  1  0  0  0  0
 15 16  1  0  0  0  0
 15 18  1  0  0  0  0
 16 17  1  0  0  0  0
 16 45  1  0  0  0  0
 16 46  1  0  0  0  0
 17 47  1  0  0  0  0
 17 48  1  0  0  0  0
 18 19  2  0  0  0  0
 18 20  2  0  0  0  0
 18 21  1  0  0  0  0
 21 22  1  0  0  0  0
 21 26  2  0  0  0  0
 22 23  2  0  0  0  0
 22 49  1  0  0  0  0
 23 24  1  0  0  0  0
 23 50  1  0  0  0  0
 24 25  2  0  0  0  0
 24 51  1  0  0  0  0
 25 26  1  0  0  0  0
 25 52  1  0  0  0  0
 26 27  1  0  0  0  0
 28 29  1  0  0  0  0
 28 34  2  0  0  0  0
 29 30  2  0  0  0  0
 29 53  1  0  0  0  0
 30 31  1  0  0  0  0
 30 32  1  0  0  0  0
 32 33  2  0  0  0  0
 32 54  1  0  0  0  0
 33 34  1  0  0  0  0
 33 55  1  0  0  0  0
 35 36  1  0  0  0  0
 35 56  1  0  0  0  0
 36 57  1  0  0  0  0
M  CHG  1   1  -1
M  END
