FXR_84
 OpenBabel12152017353D

 57 61  0  0  0  0  0  0  0  0999 V2000
    3.4327   -5.1794    1.4750 O   0  5  0  0  0  0  0  0  0  0  0  0
    4.6212   -4.9253    1.8482 C   0  0  0  0  0  0  0  0  0  0  0  0
    5.6352   -5.6701    1.6626 O   0  0  0  0  0  0  0  0  0  0  0  0
    4.8499   -3.6233    2.5891 C   0  0  0  0  0  0  0  0  0  0  0  0
    3.7857   -2.7466    2.8538 C   0  0  0  0  0  0  0  0  0  0  0  0
    3.9889   -1.5662    3.5684 C   0  0  0  0  0  0  0  0  0  0  0  0
    5.2653   -1.2407    4.0365 C   0  0  0  0  0  0  0  0  0  0  0  0
    5.4878    0.0379    4.7764 C   0  0  0  0  0  0  0  0  0  0  0  0
    4.8334    0.1468    6.0855 N   0  0  0  0  0  0  0  0  0  0  0  0
    4.5889    1.5054    6.4096 C   0  0  0  0  0  0  0  0  0  0  0  0
    3.9113    2.2869    5.7534 O   0  0  0  0  0  0  0  0  0  0  0  0
    5.4687    1.8666    7.6332 C   0  0  0  0  0  0  0  0  0  0  0  0
    6.4787    2.9104    7.1395 C   0  0  0  0  0  0  0  0  0  0  0  0
    7.2519    3.5404    8.2907 C   0  0  0  0  0  0  0  0  0  0  0  0
    6.3264    4.0351    9.3555 N   0  0  0  0  0  0  0  0  0  0  0  0
    5.4344    2.9767    9.8956 C   0  0  0  0  0  0  0  0  0  0  0  0
    4.5893    2.3767    8.7740 C   0  0  0  0  0  0  0  0  0  0  0  0
    5.5408    5.5408    9.1161 S   0  0  0  0  0  0  0  0  0  0  0  0
    5.4121    5.7506    7.6919 O   0  0  0  0  0  0  0  0  0  0  0  0
    4.3761    5.6062    9.9750 O   0  0  0  0  0  0  0  0  0  0  0  0
    6.6692    6.7385    9.7304 C   0  0  0  0  0  0  0  0  0  0  0  0
    7.1430    7.7319    8.8616 C   0  0  0  0  0  0  0  0  0  0  0  0
    7.9010    8.7858    9.3719 C   0  0  0  0  0  0  0  0  0  0  0  0
    8.1624    8.8610   10.7422 C   0  0  0  0  0  0  0  0  0  0  0  0
    7.6716    7.8756   11.5986 C   0  0  0  0  0  0  0  0  0  0  0  0
    6.9274    6.8121   11.0798 C   0  0  0  0  0  0  0  0  0  0  0  0
    6.4686    5.8883   11.9372 F   0  0  0  0  0  0  0  0  0  0  0  0
    6.0628    0.5329    7.9932 C   0  0  0  0  0  0  0  0  0  0  0  0
    6.8693    0.1878    9.0663 C   0  0  0  0  0  0  0  0  0  0  0  0
    6.9149   -1.1446    9.4489 C   0  0  0  0  0  0  0  0  0  0  0  0
    7.7991   -1.5876   11.0617 Br  0  0  0  0  0  0  0  0  0  0  0  0
    6.2331   -2.1223    8.7134 C   0  0  0  0  0  0  0  0  0  0  0  0
    5.5699   -1.7806    7.5238 C   0  0  0  0  0  0  0  0  0  0  0  0
    5.5218   -0.4446    7.1684 C   0  0  0  0  0  0  0  0  0  0  0  0
    6.3422   -2.0871    3.7444 C   0  0  0  0  0  0  0  0  0  0  0  0
    6.1331   -3.2671    3.0321 C   0  0  0  0  0  0  0  0  0  0  0  0
    2.7892   -2.9980    2.4948 H   0  0  0  0  0  0  0  0  0  0  0  0
    3.1487   -0.8999    3.7496 H   0  0  0  0  0  0  0  0  0  0  0  0
    5.1801    0.8716    4.1298 H   0  0  0  0  0  0  0  0  0  0  0  0
    6.5650    0.2051    4.9334 H   0  0  0  0  0  0  0  0  0  0  0  0
    5.9486    3.6982    6.5901 H   0  0  0  0  0  0  0  0  0  0  0  0
    7.1676    2.4774    6.4006 H   0  0  0  0  0  0  0  0  0  0  0  0
    7.9071    4.3400    7.9324 H   0  0  0  0  0  0  0  0  0  0  0  0
    7.9298    2.7929    8.7185 H   0  0  0  0  0  0  0  0  0  0  0  0
    4.7889    3.3665   10.6856 H   0  0  0  0  0  0  0  0  0  0  0  0
    6.0370    2.2292   10.4196 H   0  0  0  0  0  0  0  0  0  0  0  0
    3.8889    3.1327    8.4080 H   0  0  0  0  0  0  0  0  0  0  0  0
    3.9694    1.5680    9.1827 H   0  0  0  0  0  0  0  0  0  0  0  0
    6.8854    7.7204    7.8040 H   0  0  0  0  0  0  0  0  0  0  0  0
    8.2592    9.5655    8.7033 H   0  0  0  0  0  0  0  0  0  0  0  0
    8.7265    9.7003   11.1406 H   0  0  0  0  0  0  0  0  0  0  0  0
    7.8375    7.9459   12.6713 H   0  0  0  0  0  0  0  0  0  0  0  0
    7.3913    0.9266    9.6570 H   0  0  0  0  0  0  0  0  0  0  0  0
    6.1971   -3.1472    9.0743 H   0  0  0  0  0  0  0  0  0  0  0  0
    5.0297   -2.5351    6.9574 H   0  0  0  0  0  0  0  0  0  0  0  0
    7.3518   -1.8380    4.0591 H   0  0  0  0  0  0  0  0  0  0  0  0
    6.9713   -3.9262    2.8126 H   0  0  0  0  0  0  0  0  0  0  0  0
  1  2  1  0  0  0  0
  2  3  2  0  0  0  0
  2  4  1  0  0  0  0
  4  5  1  0  0  0  0
  4 36  2  0  0  0  0
  5  6  2  0  0  0  0
  5 37  1  0  0  0  0
  6  7  1  0  0  0  0
  6 38  1  0  0  0  0
  7  8  1  0  0  0  0
  7 35  2  0  0  0  0
  8  9  1  0  0  0  0
  8 39  1  0  0  0  0
  8 40  1  0  0  0  0
  9 10  1  0  0  0  0
  9 34  1  0  0  0  0
 10 11  2  0  0  0  0
 10 12  1  0  0  0  0
 12 13  1  0  0  0  0
 12 17  1  0  0  0  0
 12 28  1  0  0  0  0
 13 14  1  0  0  0  0
 13 41  1  0  0  0  0
 13 42  1  0  0  0  0
 14 15  1  0  0  0  0
 14 43  1  0  0  0  0
 14 44  1  0  0  0  0
 15 16  1  0  0  0  0
 15 18  1  0  0  0  0
 16 17  1  0  0  0  0
 16 45  1  0  0  0  0
 16 46  1  0  0  0  0
 17 47  1  0  0  0  0
 17 48  1  0  0  0  0
 18 19  2  0  0  0  0
 18 20  2  0  0  0  0
 18 21  1  0  0  0  0
 21 22  1  0  0  0  0
 21 26  2  0  0  0  0
 22 23  2  0  0  0  0
 22 49  1  0  0  0  0
 23 24  1  0  0  0  0
 23 50  1  0  0  0  0
 24 25  2  0  0  0  0
 24 51  1  0  0  0  0
 25 26  1  0  0  0  0
 25 52  1  0  0  0  0
 26 27  1  0  0  0  0
 28 29  1  0  0  0  0
 28 34  2  0  0  0  0
 29 30  2  0  0  0  0
 29 53  1  0  0  0  0
 30 31  1  0  0  0  0
 30 32  1  0  0  0  0
 32 33  2  0  0  0  0
 32 54  1  0  0  0  0
 33 34  1  0  0  0  0
 33 55  1  0  0  0  0
 35 36  1  0  0  0  0
 35 56  1  0  0  0  0
 36 57  1  0  0  0  0
M  CHG  1   1  -1
M  END
