FXR_12
 OpenBabel12152017353D

 57 61  0  0  0  0  0  0  0  0999 V2000
    4.1368    4.1205   -3.0277 O   0  5  0  0  0  0  0  0  0  0  0  0
    5.2644    3.6065   -3.3111 C   0  0  0  0  0  0  0  0  0  0  0  0
    6.3751    4.2248   -3.3547 O   0  0  0  0  0  0  0  0  0  0  0  0
    5.2890    2.1239   -3.6278 C   0  0  0  0  0  0  0  0  0  0  0  0
    4.1090    1.3619   -3.6107 C   0  0  0  0  0  0  0  0  0  0  0  0
    4.1303   -0.0045   -3.8948 C   0  0  0  0  0  0  0  0  0  0  0  0
    5.3378   -0.6406   -4.1972 C   0  0  0  0  0  0  0  0  0  0  0  0
    5.3802   -2.1262   -4.3715 C   0  0  0  0  0  0  0  0  0  0  0  0
    4.7777   -2.6893   -5.5762 N   0  0  0  0  0  0  0  0  0  0  0  0
    4.4017   -4.0412   -5.4159 C   0  0  0  0  0  0  0  0  0  0  0  0
    3.7019   -4.4921   -4.5197 O   0  0  0  0  0  0  0  0  0  0  0  0
    5.1898   -4.8845   -6.4454 C   0  0  0  0  0  0  0  0  0  0  0  0
    6.2311   -5.6707   -5.6276 C   0  0  0  0  0  0  0  0  0  0  0  0
    6.9288   -6.7558   -6.4366 C   0  0  0  0  0  0  0  0  0  0  0  0
    5.9466   -7.6021   -7.1574 N   0  0  0  0  0  0  0  0  0  0  0  0
    5.0060   -6.8511   -8.0175 C   0  0  0  0  0  0  0  0  0  0  0  0
    4.2343   -5.8136   -7.2079 C   0  0  0  0  0  0  0  0  0  0  0  0
    5.2915   -8.9440   -6.3369 S   0  0  0  0  0  0  0  0  0  0  0  0
    5.2172   -8.5983   -4.9319 O   0  0  0  0  0  0  0  0  0  0  0  0
    4.1227   -9.4275   -7.0388 O   0  0  0  0  0  0  0  0  0  0  0  0
    6.5378  -10.1947   -6.5075 C   0  0  0  0  0  0  0  0  0  0  0  0
    7.1204  -10.7079   -5.3362 C   0  0  0  0  0  0  0  0  0  0  0  0
    7.9443  -11.8310   -5.3967 C   0  0  0  0  0  0  0  0  0  0  0  0
    8.1907  -12.4451   -6.6211 C   0  0  0  0  0  0  0  0  0  0  0  0
    7.6400  -11.9163   -7.7902 C   0  0  0  0  0  0  0  0  0  0  0  0
    6.8150  -10.7848   -7.7428 C   0  0  0  0  0  0  0  0  0  0  0  0
    6.2174  -10.2020   -9.2538 Cl  0  0  0  0  0  0  0  0  0  0  0  0
    5.8061   -3.8060   -7.3123 C   0  0  0  0  0  0  0  0  0  0  0  0
    6.5941   -3.9013   -8.4489 C   0  0  0  0  0  0  0  0  0  0  0  0
    6.9326   -2.7310   -9.1282 C   0  0  0  0  0  0  0  0  0  0  0  0
    7.9638   -2.8572  -10.7089 Br  0  0  0  0  0  0  0  0  0  0  0  0
    6.5108   -1.4804   -8.6619 C   0  0  0  0  0  0  0  0  0  0  0  0
    5.7974   -1.3836   -7.4620 C   0  0  0  0  0  0  0  0  0  0  0  0
    5.4784   -2.5546   -6.7931 C   0  0  0  0  0  0  0  0  0  0  0  0
    6.5219    0.1103   -4.2177 C   0  0  0  0  0  0  0  0  0  0  0  0
    6.4944    1.4770   -3.9384 C   0  0  0  0  0  0  0  0  0  0  0  0
    3.1693    1.8473   -3.3522 H   0  0  0  0  0  0  0  0  0  0  0  0
    3.2051   -0.5735   -3.8446 H   0  0  0  0  0  0  0  0  0  0  0  0
    4.9208   -2.5843   -3.4854 H   0  0  0  0  0  0  0  0  0  0  0  0
    6.4229   -2.4784   -4.3451 H   0  0  0  0  0  0  0  0  0  0  0  0
    5.7322   -6.1426   -4.7709 H   0  0  0  0  0  0  0  0  0  0  0  0
    6.9760   -4.9961   -5.1843 H   0  0  0  0  0  0  0  0  0  0  0  0
    7.5579   -7.3644   -5.7785 H   0  0  0  0  0  0  0  0  0  0  0  0
    7.6149   -6.3061   -7.1609 H   0  0  0  0  0  0  0  0  0  0  0  0
    4.3075   -7.5244   -8.5223 H   0  0  0  0  0  0  0  0  0  0  0  0
    5.5672   -6.3960   -8.8357 H   0  0  0  0  0  0  0  0  0  0  0  0
    3.5830   -6.3368   -6.5009 H   0  0  0  0  0  0  0  0  0  0  0  0
    3.5820   -5.2421   -7.8715 H   0  0  0  0  0  0  0  0  0  0  0  0
    6.9037  -10.2633   -4.3669 H   0  0  0  0  0  0  0  0  0  0  0  0
    8.3670  -12.2424   -4.4832 H   0  0  0  0  0  0  0  0  0  0  0  0
    8.8047  -13.3412   -6.6668 H   0  0  0  0  0  0  0  0  0  0  0  0
    7.8425  -12.4059   -8.7399 H   0  0  0  0  0  0  0  0  0  0  0  0
    6.9455   -4.8528   -8.8234 H   0  0  0  0  0  0  0  0  0  0  0  0
    6.7333   -0.5803   -9.2281 H   0  0  0  0  0  0  0  0  0  0  0  0
    5.4606   -0.4142   -7.1040 H   0  0  0  0  0  0  0  0  0  0  0  0
    7.4787   -0.3600   -4.4263 H   0  0  0  0  0  0  0  0  0  0  0  0
    7.4188    2.0527   -3.9405 H   0  0  0  0  0  0  0  0  0  0  0  0
  1  2  1  0  0  0  0
  2  3  2  0  0  0  0
  2  4  1  0  0  0  0
  4  5  1  0  0  0  0
  4 36  2  0  0  0  0
  5  6  2  0  0  0  0
  5 37  1  0  0  0  0
  6  7  1  0  0  0  0
  6 38  1  0  0  0  0
  7  8  1  0  0  0  0
  7 35  2  0  0  0  0
  8  9  1  0  0  0  0
  8 39  1  0  0  0  0
  8 40  1  0  0  0  0
  9 10  1  0  0  0  0
  9 34  1  0  0  0  0
 10 11  2  0  0  0  0
 10 12  1  0  0  0  0
 12 13  1  0  0  0  0
 12 17  1  0  0  0  0
 12 28  1  0  0  0  0
 13 14  1  0  0  0  0
 13 41  1  0  0  0  0
 13 42  1  0  0  0  0
 14 15  1  0  0  0  0
 14 43  1  0  0  0  0
 14 44  1  0  0  0  0
 15 16  1  0  0  0  0
 15 18  1  0  0  0  0
 16 17  1  0  0  0  0
 16 45  1  0  0  0  0
 16 46  1  0  0  0  0
 17 47  1  0  0  0  0
 17 48  1  0  0  0  0
 18 19  2  0  0  0  0
 18 20  2  0  0  0  0
 18 21  1  0  0  0  0
 21 22  1  0  0  0  0
 21 26  2  0  0  0  0
 22 23  2  0  0  0  0
 22 49  1  0  0  0  0
 23 24  1  0  0  0  0
 23 50  1  0  0  0  0
 24 25  2  0  0  0  0
 24 51  1  0  0  0  0
 25 26  1  0  0  0  0
 25 52  1  0  0  0  0
 26 27  1  0  0  0  0
 28 29  1  0  0  0  0
 28 34  2  0  0  0  0
 29 30  2  0  0  0  0
 29 53  1  0  0  0  0
 30 31  1  0  0  0  0
 30 32  1  0  0  0  0
 32 33  2  0  0  0  0
 32 54  1  0  0  0  0
 33 34  1  0  0  0  0
 33 55  1  0  0  0  0
 35 36  1  0  0  0  0
 35 56  1  0  0  0  0
 36 57  1  0  0  0  0
M  CHG  1   1  -1
M  END
