FXR_85
 OpenBabel12152017353D

 60 64  0  0  0  0  0  0  0  0999 V2000
   -1.4517   -2.7149   -1.3776 C   0  0  0  0  0  0  0  0  0  0  0  0
   -0.4843   -2.0080   -2.2962 C   0  0  0  0  0  0  0  0  0  0  0  0
   -1.0234   -1.1832   -3.2981 C   0  0  0  0  0  0  0  0  0  0  0  0
   -0.1876   -0.5459   -4.2129 C   0  0  0  0  0  0  0  0  0  0  0  0
    1.1942   -0.7312   -4.1477 C   0  0  0  0  0  0  0  0  0  0  0  0
    1.7571   -1.5263   -3.1474 C   0  0  0  0  0  0  0  0  0  0  0  0
    0.9237   -2.1704   -2.2284 C   0  0  0  0  0  0  0  0  0  0  0  0
    1.6032   -3.1837   -0.9299 S   0  0  0  0  0  0  0  0  0  0  0  0
    1.3939   -2.4498    0.2944 O   0  0  0  0  0  0  0  0  0  0  0  0
    1.0423   -4.5125   -1.1393 O   0  0  0  0  0  0  0  0  0  0  0  0
    3.3409   -3.3013   -1.1666 N   0  0  0  0  0  0  0  0  0  0  0  0
    3.7250   -4.2907   -2.2134 C   0  0  0  0  0  0  0  0  0  0  0  0
    5.1380   -4.7842   -2.0719 C   0  0  0  0  0  0  0  0  0  0  0  0
    5.4231   -5.3002   -0.6675 C   0  0  0  0  0  0  0  0  0  0  0  0
    5.4370   -4.0597    0.2228 C   0  0  0  0  0  0  0  0  0  0  0  0
    4.1099   -3.2797    0.1466 C   0  0  0  0  0  0  0  0  0  0  0  0
    6.7718   -6.0488   -0.7753 C   0  0  0  0  0  0  0  0  0  0  0  0
    7.6993   -5.7614   -1.5215 O   0  0  0  0  0  0  0  0  0  0  0  0
    6.7692   -7.1246    0.1360 N   0  0  0  0  0  0  0  0  0  0  0  0
    7.6888   -6.8100    1.2268 C   0  0  0  0  0  0  0  0  0  0  0  0
    8.3062   -7.9273    2.0007 C   0  0  0  0  0  0  0  0  0  0  0  0
    9.0044   -8.9490    1.3517 C   0  0  0  0  0  0  0  0  0  0  0  0
    9.6367   -9.9474    2.0949 C   0  0  0  0  0  0  0  0  0  0  0  0
    9.5962   -9.9411    3.4988 C   0  0  0  0  0  0  0  0  0  0  0  0
    8.9611   -8.8685    4.1406 C   0  0  0  0  0  0  0  0  0  0  0  0
    8.3292   -7.8689    3.4020 C   0  0  0  0  0  0  0  0  0  0  0  0
   10.2050  -11.0725    4.3018 C   0  0  0  0  0  0  0  0  0  0  0  0
   10.1122  -10.9982    5.5682 O   0  0  0  0  0  0  0  0  0  0  0  0
   10.7485  -12.0189    3.6494 O   0  5  0  0  0  0  0  0  0  0  0  0
    5.4085   -7.4167    0.4214 C   0  0  0  0  0  0  0  0  0  0  0  0
    4.8552   -8.6272    0.8248 C   0  0  0  0  0  0  0  0  0  0  0  0
    3.4559   -8.7578    0.8138 C   0  0  0  0  0  0  0  0  0  0  0  0
    2.6465   -7.6604    0.5279 C   0  0  0  0  0  0  0  0  0  0  0  0
    0.7587   -7.8169    0.4967 Br  0  0  0  0  0  0  0  0  0  0  0  0
    3.2226   -6.4529    0.1632 C   0  0  0  0  0  0  0  0  0  0  0  0
    4.5886   -6.3800   -0.0221 C   0  0  0  0  0  0  0  0  0  0  0  0
   -2.4549   -2.2762   -1.4418 H   0  0  0  0  0  0  0  0  0  0  0  0
   -1.1503   -2.6360   -0.3307 H   0  0  0  0  0  0  0  0  0  0  0  0
   -1.5364   -3.7679   -1.6618 H   0  0  0  0  0  0  0  0  0  0  0  0
   -2.0993   -1.0295   -3.3721 H   0  0  0  0  0  0  0  0  0  0  0  0
   -0.6148    0.0892   -4.9844 H   0  0  0  0  0  0  0  0  0  0  0  0
    1.8329   -0.2407   -4.8769 H   0  0  0  0  0  0  0  0  0  0  0  0
    2.8454   -1.6409   -3.0964 H   0  0  0  0  0  0  0  0  0  0  0  0
    3.6241   -3.8210   -3.1962 H   0  0  0  0  0  0  0  0  0  0  0  0
    3.0698   -5.1631   -2.2151 H   0  0  0  0  0  0  0  0  0  0  0  0
    5.8281   -3.9510   -2.2888 H   0  0  0  0  0  0  0  0  0  0  0  0
    5.3480   -5.5415   -2.8345 H   0  0  0  0  0  0  0  0  0  0  0  0
    6.2673   -3.4006   -0.0666 H   0  0  0  0  0  0  0  0  0  0  0  0
    5.6415   -4.3104    1.2688 H   0  0  0  0  0  0  0  0  0  0  0  0
    3.4715   -3.6501    0.9557 H   0  0  0  0  0  0  0  0  0  0  0  0
    4.3193   -2.2276    0.3775 H   0  0  0  0  0  0  0  0  0  0  0  0
    7.1815   -6.1027    1.8985 H   0  0  0  0  0  0  0  0  0  0  0  0
    8.5282   -6.2346    0.8066 H   0  0  0  0  0  0  0  0  0  0  0  0
    9.0749   -8.9672    0.2671 H   0  0  0  0  0  0  0  0  0  0  0  0
   10.1675  -10.7497    1.5848 H   0  0  0  0  0  0  0  0  0  0  0  0
    8.9602   -8.8260    5.2289 H   0  0  0  0  0  0  0  0  0  0  0  0
    7.8678   -7.0422    3.9362 H   0  0  0  0  0  0  0  0  0  0  0  0
    5.4751   -9.4927    1.0322 H   0  0  0  0  0  0  0  0  0  0  0  0
    2.9920   -9.7266    0.9990 H   0  0  0  0  0  0  0  0  0  0  0  0
    2.5826   -5.6103   -0.0027 H   0  0  0  0  0  0  0  0  0  0  0  0
  1  2  1  0  0  0  0
  1 37  1  0  0  0  0
  1 38  1  0  0  0  0
  1 39  1  0  0  0  0
  2  3  1  0  0  0  0
  2  7  2  0  0  0  0
  3  4  2  0  0  0  0
  3 40  1  0  0  0  0
  4  5  1  0  0  0  0
  4 41  1  0  0  0  0
  5  6  2  0  0  0  0
  5 42  1  0  0  0  0
  6  7  1  0  0  0  0
  6 43  1  0  0  0  0
  7  8  1  0  0  0  0
  8  9  2  0  0  0  0
  8 10  2  0  0  0  0
  8 11  1  0  0  0  0
 11 12  1  0  0  0  0
 11 16  1  0  0  0  0
 12 13  1  0  0  0  0
 12 44  1  0  0  0  0
 12 45  1  0  0  0  0
 13 14  1  0  0  0  0
 13 46  1  0  0  0  0
 13 47  1  0  0  0  0
 14 15  1  0  0  0  0
 14 17  1  0  0  0  0
 14 36  1  0  0  0  0
 15 16  1  0  0  0  0
 15 48  1  0  0  0  0
 15 49  1  0  0  0  0
 16 50  1  0  0  0  0
 16 51  1  0  0  0  0
 17 18  2  0  0  0  0
 17 19  1  0  0  0  0
 19 20  1  0  0  0  0
 19 30  1  0  0  0  0
 20 21  1  0  0  0  0
 20 52  1  0  0  0  0
 20 53  1  0  0  0  0
 21 22  1  0  0  0  0
 21 26  2  0  0  0  0
 22 23  2  0  0  0  0
 22 54  1  0  0  0  0
 23 24  1  0  0  0  0
 23 55  1  0  0  0  0
 24 25  2  0  0  0  0
 24 27  1  0  0  0  0
 25 26  1  0  0  0  0
 25 56  1  0  0  0  0
 26 57  1  0  0  0  0
 27 28  2  0  0  0  0
 27 29  1  0  0  0  0
 30 31  1  0  0  0  0
 30 36  2  0  0  0  0
 31 32  2  0  0  0  0
 31 58  1  0  0  0  0
 32 33  1  0  0  0  0
 32 59  1  0  0  0  0
 33 34  1  0  0  0  0
 33 35  2  0  0  0  0
 35 36  1  0  0  0  0
 35 60  1  0  0  0  0
M  CHG  1  29  -1
M  END
