FXR_76
 OpenBabel12152017353D

 57 61  0  0  0  0  0  0  0  0999 V2000
    2.3375    3.1676    1.5368 O   0  5  0  0  0  0  0  0  0  0  0  0
    3.4778    3.6036    1.1834 C   0  0  0  0  0  0  0  0  0  0  0  0
    4.3048    4.2160    1.9318 O   0  0  0  0  0  0  0  0  0  0  0  0
    3.8907    3.3790   -0.2574 C   0  0  0  0  0  0  0  0  0  0  0  0
    3.0475    2.7114   -1.1610 C   0  0  0  0  0  0  0  0  0  0  0  0
    3.4321    2.5112   -2.4891 C   0  0  0  0  0  0  0  0  0  0  0  0
    4.6720    2.9796   -2.9393 C   0  0  0  0  0  0  0  0  0  0  0  0
    5.1673    2.6582   -4.3111 C   0  0  0  0  0  0  0  0  0  0  0  0
    4.3547    3.1255   -5.4221 N   0  0  0  0  0  0  0  0  0  0  0  0
    3.8865    2.0929   -6.2462 C   0  0  0  0  0  0  0  0  0  0  0  0
    3.2504    1.1167   -5.8781 O   0  0  0  0  0  0  0  0  0  0  0  0
    4.4998    2.3169   -7.6487 C   0  0  0  0  0  0  0  0  0  0  0  0
    5.8770    1.5926   -7.6384 C   0  0  0  0  0  0  0  0  0  0  0  0
    6.3656    1.2362   -9.0298 C   0  0  0  0  0  0  0  0  0  0  0  0
    5.3506    0.4537   -9.7519 N   0  0  0  0  0  0  0  0  0  0  0  0
    4.1182    1.2510   -9.9767 C   0  0  0  0  0  0  0  0  0  0  0  0
    3.5072    1.7595   -8.6798 C   0  0  0  0  0  0  0  0  0  0  0  0
    5.1394   -1.1885   -9.3138 S   0  0  0  0  0  0  0  0  0  0  0  0
    4.9968   -1.2829   -7.8823 O   0  0  0  0  0  0  0  0  0  0  0  0
    4.1496   -1.7619  -10.2047 O   0  0  0  0  0  0  0  0  0  0  0  0
    6.7051   -1.9275   -9.7537 C   0  0  0  0  0  0  0  0  0  0  0  0
    7.5582   -2.4353   -8.7671 C   0  0  0  0  0  0  0  0  0  0  0  0
    8.7394   -3.0764   -9.1484 C   0  0  0  0  0  0  0  0  0  0  0  0
    9.0570   -3.2149  -10.5012 C   0  0  0  0  0  0  0  0  0  0  0  0
    8.1975   -2.7136  -11.4792 C   0  0  0  0  0  0  0  0  0  0  0  0
    7.0181   -2.0673  -11.1084 C   0  0  0  0  0  0  0  0  0  0  0  0
    4.8297    3.7988   -7.5815 C   0  0  0  0  0  0  0  0  0  0  0  0
    5.4014    4.6295   -8.5357 C   0  0  0  0  0  0  0  0  0  0  0  0
    5.9554    5.8426   -8.1027 C   0  0  0  0  0  0  0  0  0  0  0  0
    6.9143    6.9140   -9.3364 Br  0  0  0  0  0  0  0  0  0  0  0  0
    5.8959    6.2413   -6.7562 C   0  0  0  0  0  0  0  0  0  0  0  0
    5.3192    5.4023   -5.8005 C   0  0  0  0  0  0  0  0  0  0  0  0
    4.8212    4.1836   -6.2285 C   0  0  0  0  0  0  0  0  0  0  0  0
    5.5246    3.6324   -2.0415 C   0  0  0  0  0  0  0  0  0  0  0  0
    5.1362    3.8303   -0.7187 C   0  0  0  0  0  0  0  0  0  0  0  0
    2.0879    2.3338   -0.8108 H   0  0  0  0  0  0  0  0  0  0  0  0
    2.7719    1.9595   -3.1558 H   0  0  0  0  0  0  0  0  0  0  0  0
    5.2628    1.5639   -4.3721 H   0  0  0  0  0  0  0  0  0  0  0  0
    6.1924    3.0244   -4.4553 H   0  0  0  0  0  0  0  0  0  0  0  0
    5.8280    0.7007   -7.0080 H   0  0  0  0  0  0  0  0  0  0  0  0
    6.6545    2.2060   -7.1600 H   0  0  0  0  0  0  0  0  0  0  0  0
    7.3173    0.7013   -8.9842 H   0  0  0  0  0  0  0  0  0  0  0  0
    6.5705    2.1455   -9.6064 H   0  0  0  0  0  0  0  0  0  0  0  0
    3.3806    0.6603  -10.5325 H   0  0  0  0  0  0  0  0  0  0  0  0
    4.3667    2.0965  -10.6286 H   0  0  0  0  0  0  0  0  0  0  0  0
    2.9809    0.8969   -8.2479 H   0  0  0  0  0  0  0  0  0  0  0  0
    2.7212    2.4928   -8.8992 H   0  0  0  0  0  0  0  0  0  0  0  0
    7.3067   -2.3592   -7.7109 H   0  0  0  0  0  0  0  0  0  0  0  0
    9.4051   -3.4876   -8.3928 H   0  0  0  0  0  0  0  0  0  0  0  0
    9.9682   -3.7300  -10.7952 H   0  0  0  0  0  0  0  0  0  0  0  0
    8.4386   -2.8349  -12.5320 H   0  0  0  0  0  0  0  0  0  0  0  0
    6.3359   -1.6996  -11.8721 H   0  0  0  0  0  0  0  0  0  0  0  0
    5.5114    4.3118   -9.5670 H   0  0  0  0  0  0  0  0  0  0  0  0
    6.3285    7.1884   -6.4391 H   0  0  0  0  0  0  0  0  0  0  0  0
    5.2804    5.6917   -4.7542 H   0  0  0  0  0  0  0  0  0  0  0  0
    6.5106    3.9658   -2.3520 H   0  0  0  0  0  0  0  0  0  0  0  0
    5.8105    4.3282   -0.0243 H   0  0  0  0  0  0  0  0  0  0  0  0
  1  2  1  0  0  0  0
  2  3  2  0  0  0  0
  2  4  1  0  0  0  0
  4  5  1  0  0  0  0
  4 35  2  0  0  0  0
  5  6  2  0  0  0  0
  5 36  1  0  0  0  0
  6  7  1  0  0  0  0
  6 37  1  0  0  0  0
  7  8  1  0  0  0  0
  7 34  2  0  0  0  0
  8  9  1  0  0  0  0
  8 38  1  0  0  0  0
  8 39  1  0  0  0  0
  9 10  1  0  0  0  0
  9 33  1  0  0  0  0
 10 11  2  0  0  0  0
 10 12  1  0  0  0  0
 12 13  1  0  0  0  0
 12 17  1  0  0  0  0
 12 27  1  0  0  0  0
 13 14  1  0  0  0  0
 13 40  1  0  0  0  0
 13 41  1  0  0  0  0
 14 15  1  0  0  0  0
 14 42  1  0  0  0  0
 14 43  1  0  0  0  0
 15 16  1  0  0  0  0
 15 18  1  0  0  0  0
 16 17  1  0  0  0  0
 16 44  1  0  0  0  0
 16 45  1  0  0  0  0
 17 46  1  0  0  0  0
 17 47  1  0  0  0  0
 18 19  2  0  0  0  0
 18 20  2  0  0  0  0
 18 21  1  0  0  0  0
 21 22  1  0  0  0  0
 21 26  2  0  0  0  0
 22 23  2  0  0  0  0
 22 48  1  0  0  0  0
 23 24  1  0  0  0  0
 23 49  1  0  0  0  0
 24 25  2  0  0  0  0
 24 50  1  0  0  0  0
 25 26  1  0  0  0  0
 25 51  1  0  0  0  0
 26 52  1  0  0  0  0
 27 28  1  0  0  0  0
 27 33  2  0  0  0  0
 28 29  2  0  0  0  0
 28 53  1  0  0  0  0
 29 30  1  0  0  0  0
 29 31  1  0  0  0  0
 31 32  2  0  0  0  0
 31 54  1  0  0  0  0
 32 33  1  0  0  0  0
 32 55  1  0  0  0  0
 34 35  1  0  0  0  0
 34 56  1  0  0  0  0
 35 57  1  0  0  0  0
M  CHG  1   1  -1
M  END
