FXR_88
 OpenBabel12152017353D

 60 64  0  0  0  0  0  0  0  0999 V2000
    1.7136    0.3481   -2.9097 O   0  5  0  0  0  0  0  0  0  0  0  0
    2.8480    0.0714   -3.4116 C   0  0  0  0  0  0  0  0  0  0  0  0
    3.4563    0.7440   -4.3006 O   0  0  0  0  0  0  0  0  0  0  0  0
    3.5438   -1.1788   -2.8982 C   0  0  0  0  0  0  0  0  0  0  0  0
    2.9487   -1.9935   -1.9208 C   0  0  0  0  0  0  0  0  0  0  0  0
    3.5865   -3.1486   -1.4620 C   0  0  0  0  0  0  0  0  0  0  0  0
    4.8369   -3.5116   -1.9752 C   0  0  0  0  0  0  0  0  0  0  0  0
    5.5870   -4.6770   -1.4167 C   0  0  0  0  0  0  0  0  0  0  0  0
    4.9808   -5.9851   -1.6075 N   0  0  0  0  0  0  0  0  0  0  0  0
    4.7084   -6.6912   -0.4243 C   0  0  0  0  0  0  0  0  0  0  0  0
    4.1526   -6.2534    0.5720 O   0  0  0  0  0  0  0  0  0  0  0  0
    5.4355   -8.0474   -0.5228 C   0  0  0  0  0  0  0  0  0  0  0  0
    6.6797   -7.9046    0.3818 C   0  0  0  0  0  0  0  0  0  0  0  0
    7.3355   -9.2343    0.7212 C   0  0  0  0  0  0  0  0  0  0  0  0
    6.3332  -10.2167    1.1840 N   0  0  0  0  0  0  0  0  0  0  0  0
    5.2446  -10.4530    0.2020 C   0  0  0  0  0  0  0  0  0  0  0  0
    4.4951   -9.1691   -0.0925 C   0  0  0  0  0  0  0  0  0  0  0  0
    5.8606  -10.1789    2.8182 S   0  0  0  0  0  0  0  0  0  0  0  0
    5.8909   -8.7971    3.2598 O   0  0  0  0  0  0  0  0  0  0  0  0
    4.6849  -10.9901    3.0188 O   0  0  0  0  0  0  0  0  0  0  0  0
    7.1821  -11.0428    3.6431 C   0  0  0  0  0  0  0  0  0  0  0  0
    7.9301  -10.3128    4.5820 C   0  0  0  0  0  0  0  0  0  0  0  0
    8.8237  -10.9658    5.4276 C   0  0  0  0  0  0  0  0  0  0  0  0
    8.9663  -12.3446    5.3485 C   0  0  0  0  0  0  0  0  0  0  0  0
    8.2467  -13.0642    4.3943 C   0  0  0  0  0  0  0  0  0  0  0  0
    7.3495  -12.4303    3.5086 C   0  0  0  0  0  0  0  0  0  0  0  0
    6.6655  -13.3301    2.5047 C   0  0  0  0  0  0  0  0  0  0  0  0
    5.8516  -12.7661    1.5880 F   0  0  0  0  0  0  0  0  0  0  0  0
    7.5948  -14.0068    1.7602 F   0  0  0  0  0  0  0  0  0  0  0  0
    5.9262  -14.3023    3.1104 F   0  0  0  0  0  0  0  0  0  0  0  0
    5.8327   -8.0877   -1.9800 C   0  0  0  0  0  0  0  0  0  0  0  0
    6.4888   -9.0680   -2.7109 C   0  0  0  0  0  0  0  0  0  0  0  0
    6.7648   -8.8208   -4.0556 C   0  0  0  0  0  0  0  0  0  0  0  0
    7.6881  -10.1320   -5.0601 Br  0  0  0  0  0  0  0  0  0  0  0  0
    6.3872   -7.6135   -4.6599 C   0  0  0  0  0  0  0  0  0  0  0  0
    5.7757   -6.6069   -3.9038 C   0  0  0  0  0  0  0  0  0  0  0  0
    5.5276   -6.8590   -2.5659 C   0  0  0  0  0  0  0  0  0  0  0  0
    5.4451   -2.6959   -2.9369 C   0  0  0  0  0  0  0  0  0  0  0  0
    4.8045   -1.5458   -3.3922 C   0  0  0  0  0  0  0  0  0  0  0  0
    1.9808   -1.7083   -1.5107 H   0  0  0  0  0  0  0  0  0  0  0  0
    3.1130   -3.7447   -0.6842 H   0  0  0  0  0  0  0  0  0  0  0  0
    5.7349   -4.4979   -0.3423 H   0  0  0  0  0  0  0  0  0  0  0  0
    6.6066   -4.7125   -1.8248 H   0  0  0  0  0  0  0  0  0  0  0  0
    6.3929   -7.4038    1.3146 H   0  0  0  0  0  0  0  0  0  0  0  0
    7.4230   -7.2354   -0.0740 H   0  0  0  0  0  0  0  0  0  0  0  0
    8.1165   -9.0900    1.4752 H   0  0  0  0  0  0  0  0  0  0  0  0
    7.8481   -9.6392   -0.1582 H   0  0  0  0  0  0  0  0  0  0  0  0
    4.5421  -11.2115    0.5580 H   0  0  0  0  0  0  0  0  0  0  0  0
    5.6812  -10.8882   -0.7013 H   0  0  0  0  0  0  0  0  0  0  0  0
    3.9470   -8.8732    0.8116 H   0  0  0  0  0  0  0  0  0  0  0  0
    3.7325   -9.3584   -0.8588 H   0  0  0  0  0  0  0  0  0  0  0  0
    7.7934   -9.2383    4.6960 H   0  0  0  0  0  0  0  0  0  0  0  0
    9.3800  -10.4001    6.1720 H   0  0  0  0  0  0  0  0  0  0  0  0
    9.6316  -12.8654    6.0331 H   0  0  0  0  0  0  0  0  0  0  0  0
    8.3715  -14.1471    4.3489 H   0  0  0  0  0  0  0  0  0  0  0  0
    6.8107   -9.9985   -2.2595 H   0  0  0  0  0  0  0  0  0  0  0  0
    6.5737   -7.4496   -5.7185 H   0  0  0  0  0  0  0  0  0  0  0  0
    5.4722   -5.6731   -4.3674 H   0  0  0  0  0  0  0  0  0  0  0  0
    6.4330   -2.9316   -3.3228 H   0  0  0  0  0  0  0  0  0  0  0  0
    5.2884   -0.9122   -4.1333 H   0  0  0  0  0  0  0  0  0  0  0  0
  1  2  1  0  0  0  0
  2  3  2  0  0  0  0
  2  4  1  0  0  0  0
  4  5  1  0  0  0  0
  4 39  2  0  0  0  0
  5  6  2  0  0  0  0
  5 40  1  0  0  0  0
  6  7  1  0  0  0  0
  6 41  1  0  0  0  0
  7  8  1  0  0  0  0
  7 38  2  0  0  0  0
  8  9  1  0  0  0  0
  8 42  1  0  0  0  0
  8 43  1  0  0  0  0
  9 10  1  0  0  0  0
  9 37  1  0  0  0  0
 10 11  2  0  0  0  0
 10 12  1  0  0  0  0
 12 13  1  0  0  0  0
 12 17  1  0  0  0  0
 12 31  1  0  0  0  0
 13 14  1  0  0  0  0
 13 44  1  0  0  0  0
 13 45  1  0  0  0  0
 14 15  1  0  0  0  0
 14 46  1  0  0  0  0
 14 47  1  0  0  0  0
 15 16  1  0  0  0  0
 15 18  1  0  0  0  0
 16 17  1  0  0  0  0
 16 48  1  0  0  0  0
 16 49  1  0  0  0  0
 17 50  1  0  0  0  0
 17 51  1  0  0  0  0
 18 19  2  0  0  0  0
 18 20  2  0  0  0  0
 18 21  1  0  0  0  0
 21 22  1  0  0  0  0
 21 26  2  0  0  0  0
 22 23  2  0  0  0  0
 22 52  1  0  0  0  0
 23 24  1  0  0  0  0
 23 53  1  0  0  0  0
 24 25  2  0  0  0  0
 24 54  1  0  0  0  0
 25 26  1  0  0  0  0
 25 55  1  0  0  0  0
 26 27  1  0  0  0  0
 27 28  1  0  0  0  0
 27 29  1  0  0  0  0
 27 30  1  0  0  0  0
 31 32  1  0  0  0  0
 31 37  2  0  0  0  0
 32 33  2  0  0  0  0
 32 56  1  0  0  0  0
 33 34  1  0  0  0  0
 33 35  1  0  0  0  0
 35 36  2  0  0  0  0
 35 57  1  0  0  0  0
 36 37  1  0  0  0  0
 36 58  1  0  0  0  0
 38 39  1  0  0  0  0
 38 59  1  0  0  0  0
 39 60  1  0  0  0  0
M  CHG  1   1  -1
M  END
