LIG13_new.pdb
 OpenBabel11182117413D

 28 30  0  0  1  0  0  0  0  0999 V2000
   -1.3270    5.1620   -0.6040 N   0  0  0  0  0  0  0  0  0  0  0  0
   -2.2760    5.4600   -0.8650 H   0  0  0  0  0  0  0  0  0  0  0  0
   -0.5240    5.6880   -0.9640 H   0  0  0  0  0  0  0  0  0  0  0  0
   -1.1900    3.8560   -0.2840 C   0  0  1  0  0  0  0  0  0  0  0  0
   -2.3100    3.2080   -0.1890 N   0  0  0  0  0  0  0  0  0  0  0  0
   -2.2610    1.8860    0.1120 C   0  0  0  0  0  0  0  0  0  0  0  0
   -3.1840    1.3670    0.1870 H   0  0  0  0  0  0  0  0  0  0  0  0
   -1.1590    1.2200    0.3090 N   0  0  0  0  0  0  0  0  0  0  0  0
    0.0420    1.8720    0.2210 C   0  0  0  0  0  0  0  0  0  0  0  0
    0.0770    3.2410   -0.0760 C   0  0  0  0  0  0  0  0  0  0  0  0
    1.3220    3.9090   -0.1440 C   0  0  0  0  0  0  0  0  0  0  0  0
    1.3480    4.9450   -0.3600 H   0  0  0  0  0  0  0  0  0  0  0  0
    2.5100    3.2240    0.0680 C   0  0  0  0  0  0  0  0  0  0  0  0
    3.7950    3.9130    0.0010 C   0  0  0  0  0  0  0  0  0  0  0  0
    4.8480    3.3910   -0.7610 C   0  0  0  0  0  0  0  0  0  0  0  0
    4.7280    2.4910   -1.3040 H   0  0  0  0  0  0  0  0  0  0  0  0
    6.0550    4.0720   -0.8040 C   0  0  0  0  0  0  0  0  0  0  0  0
    7.0670    3.5600   -1.5420 F   0  0  0  0  0  0  0  0  0  0  0  0
    6.2640    5.2620   -0.1190 C   0  0  0  0  0  0  0  0  0  0  0  0
    7.2000    5.7550   -0.1760 H   0  0  0  0  0  0  0  0  0  0  0  0
    5.2200    5.7840    0.6400 C   0  0  0  0  0  0  0  0  0  0  0  0
    5.3550    6.6900    1.1750 H   0  0  0  0  0  0  0  0  0  0  0  0
    3.9980    5.1150    0.6990 C   0  0  0  0  0  0  0  0  0  0  0  0
    3.2130    5.5160    1.2870 H   0  0  0  0  0  0  0  0  0  0  0  0
    2.4580    1.8380    0.3540 C   0  0  0  0  0  0  0  0  0  0  0  0
    3.3610    1.3090    0.5210 H   0  0  0  0  0  0  0  0  0  0  0  0
    1.2500    1.1780    0.4290 C   0  0  0  0  0  0  0  0  0  0  0  0
    1.2110    0.1420    0.6480 H   0  0  0  0  0  0  0  0  0  0  0  0
  2  1  1  0  0  0  0
  3  1  1  0  0  0  0
  4  1  1  6  0  0  0
  4  5  1  0  0  0  0
  4 10  1  0  0  0  0
  5  6  2  0  0  0  0
  6  7  1  0  0  0  0
  6  8  1  0  0  0  0
  9  8  1  0  0  0  0
  9 27  1  0  0  0  0
 10  9  2  0  0  0  0
 11 10  1  0  0  0  0
 11 13  2  0  0  0  0
 12 11  1  0  0  0  0
 13 25  1  0  0  0  0
 14 13  1  0  0  0  0
 14 23  1  0  0  0  0
 15 14  2  0  0  0  0
 16 15  1  0  0  0  0
 17 15  1  0  0  0  0
 17 19  2  0  0  0  0
 18 17  1  0  0  0  0
 19 21  1  0  0  0  0
 20 19  1  0  0  0  0
 21 23  2  0  0  0  0
 21 22  1  0  0  0  0
 23 24  1  0  0  0  0
 25 27  2  0  0  0  0
 25 26  1  0  0  0  0
 27 28  1  0  0  0  0
M  END
