@<TRIPOS>MOLECULE
NONAME
28 30 1 0 0 
SMALL
USER_CHARGES


@<TRIPOS>ATOM
  1 N       -1.3274     5.1615    -0.6042 N.pl3 1 <1>  -0.9000 
  2 H1      -2.2764     5.4605    -0.8645 H     1 <1>   0.4000 
  3 H2      -0.5244     5.6876    -0.9644 H     1 <1>   0.4000 
  4 C       -1.1897     3.8559    -0.2837 C.ar  1 <1>   0.4100 
  5 N       -2.3098     3.2076    -0.1894 N.ar  1 <1>  -0.6200 
  6 C       -2.2614     1.8863     0.1117 C.ar  1 <1>   0.4700 
  7 H       -3.1843     1.3671     0.1873 H     1 <1>   0.1500 
  8 N       -1.1586     1.2200     0.3091 N.ar  1 <1>  -0.6200 
  9 C        0.0424     1.8716     0.2205 C.ar  1 <1>   0.3100 
 10 C        0.0771     3.2412    -0.0756 C.ar  1 <1>  -0.0000 
 11 C        1.3224     3.9093    -0.1437 C.ar  1 <1>  -0.1500 
 12 H        1.3484     4.9450    -0.3597 H     1 <1>   0.1500 
 13 C        2.5095     3.2236     0.0675 C.ar  1 <1>  -0.0000 
 14 C        3.7947     3.9132     0.0005 C.ar  1 <1>  -0.0000 
 15 C        4.8476     3.3913    -0.7608 C.ar  1 <1>  -0.1500 
 16 H        4.7281     2.4907    -1.3045 H     1 <1>   0.1500 
 17 C        6.0550     4.0723    -0.8040 C.ar  1 <1>   0.1900 
 18 F        7.0667     3.5597    -1.5417 F     1 <1>  -0.1900 
 19 C        6.2638     5.2616    -0.1190 C.ar  1 <1>  -0.1500 
 20 H        7.1996     5.7552    -0.1762 H     1 <1>   0.1500 
 21 C        5.2203     5.7842     0.6397 C.ar  1 <1>  -0.1500 
 22 H        5.3553     6.6900     1.1746 H     1 <1>   0.1500 
 23 C        3.9985     5.1146     0.6990 C.ar  1 <1>  -0.1500 
 24 H        3.2126     5.5155     1.2871 H     1 <1>   0.1500 
 25 C        2.4576     1.8380     0.3543 C.ar  1 <1>  -0.1500 
 26 H        3.3611     1.3090     0.5210 H     1 <1>   0.1500 
 27 C        1.2499     1.1777     0.4292 C.ar  1 <1>  -0.1500 
 28 H        1.2106     0.1423     0.6479 H     1 <1>   0.1500 
@<TRIPOS>BOND
  1   1   2  1   
  2   1   3  1   
  3   1   4  1   
  4   4   5  ar  
  5   4  10  ar  
  6   5   6  ar  
  7   6   7  1   
  8   6   8  ar  
  9   8   9  ar  
 10   9  10  ar  
 11   9  27  ar  
 12  10  11  ar  
 13  11  12  1   
 14  11  13  ar  
 15  13  14  1   
 16  13  25  ar  
 17  14  15  ar  
 18  14  23  ar  
 19  15  16  1   
 20  15  17  ar  
 21  17  18  1   
 22  17  19  ar  
 23  19  20  1   
 24  19  21  ar  
 25  21  22  1   
 26  21  23  ar  
 27  23  24  1   
 28  25  26  1   
 29  25  27  ar  
 30  27  28  1   
@<TRIPOS>SUBSTRUCTURE
  1 ****  13 GROUP 4 **** **** 0

# MOE 2020.09 (io_trps.svl 2020.11)
